#======================================================================

# CRYSTAL DATA

#----------------------------------------------------------------------

data_VESTA_phase_1


_pd_phase_name                         'ÿÿep_1                                '
_cell_length_a                         13.55767
_cell_length_b                         2.30858
_cell_length_c                         4.44500
_cell_angle_alpha                      90
_cell_angle_beta                       94.26443
_cell_angle_gamma                      90
_symmetry_space_group_name_H-M         'P 1'
_symmetry_Int_Tables_number            1

loop_
_symmetry_equiv_pos_as_xyz
   'x, y, z'

loop_
   _atom_site_label
   _atom_site_occupancy
   _atom_site_fract_x
   _atom_site_fract_y
   _atom_site_fract_z
   _atom_site_adp_type
   _atom_site_B_iso_or_equiv
   _atom_site_type_symbol
   Na1        1.0     0.320170      0.500000      0.701713     Biso  1.000000 Na
   Na2        1.0     0.679830      0.500000      0.298287     Biso  1.000000 Na
   Na3        1.0     0.820170     -0.000000      0.701713     Biso  1.000000 Na
   Na4        1.0     0.179830      0.000000      0.298287     Biso  1.000000 Na
   Na5        1.0     0.492615      0.500000      0.752333     Biso  1.000000 Na
   Na6        1.0     0.507385      0.500000      0.247667     Biso  1.000000 Na
   Na7        1.0     0.992615     -0.000000      0.752333     Biso  1.000000 Na
   Na8        1.0     0.007385     -0.000000      0.247667     Biso  1.000000 Na
   C1         1.0     0.643470      0.000000      0.779903     Biso  1.000000 C
   C2         1.0     0.356530     -0.000000      0.220097     Biso  1.000000 C
   C3         1.0     0.143470      0.500000      0.779903     Biso  1.000000 C
   C4         1.0     0.856530      0.500000      0.220097     Biso  1.000000 C
   O1         1.0     0.709344      0.500000      0.786246     Biso  1.000000 O
   O2         1.0     0.290656      0.500000      0.213754     Biso  1.000000 O
   O3         1.0     0.209344      0.000000      0.786246     Biso  1.000000 O
   O4         1.0     0.790656     -0.000000      0.213754     Biso  1.000000 O
   O5         1.0     0.591555     -0.000000      0.531205     Biso  1.000000 O
   O6         1.0     0.408445     -0.000000      0.468795     Biso  1.000000 O
   O7         1.0     0.091555      0.500000      0.531205     Biso  1.000000 O
   O8         1.0     0.908445      0.500000      0.468795     Biso  1.000000 O
   O9         1.0     0.404571      0.000000      0.987694     Biso  1.000000 O
   O10        1.0     0.595429      0.000000      0.012306     Biso  1.000000 O
   O11        1.0     0.904571      0.500000      0.987694     Biso  1.000000 O
   O12        1.0     0.095429      0.500000      0.012306     Biso  1.000000 O
