#======================================================================

# CRYSTAL DATA

#----------------------------------------------------------------------

data_VESTA_phase_1


_pd_phase_name                         'New structure'
_cell_length_a                         4.53380
_cell_length_b                         7.79180
_cell_length_c                         5.08640
_cell_angle_alpha                      90
_cell_angle_beta                       104.54000
_cell_angle_gamma                      90
_symmetry_space_group_name_H-M         'P 21'
_symmetry_Int_Tables_number            4

loop_
_symmetry_equiv_pos_as_xyz
   'x, y, z'
   '-x, y+1/2, -z'

loop_
   _atom_site_label
   _atom_site_occupancy
   _atom_site_fract_x
   _atom_site_fract_y
   _atom_site_fract_z
   _atom_site_adp_type
   _atom_site_B_iso_or_equiv
   _atom_site_type_symbol
   Mg1        1.0     0.286030     -0.033070      0.738920     Biso  1.000000 Mg
   Mg2        1.0     0.269490     -0.207950      0.062040     Biso  1.000000 Mg
   Mg3        1.0     0.348230      0.121190      0.285150     Biso  1.000000 Mg
   C1         1.0     0.231440      0.442330      0.769170     Biso  1.000000 C
   C2         1.0    -0.135330      0.302990      0.441340     Biso  1.000000 C
   C3         1.0     0.185150      0.141220      0.784100     Biso  1.000000 C
   O1         1.0     0.150750      0.021030      0.949400     Biso  1.000000 O
   O2         1.0     0.439720      0.417140      0.639670     Biso  1.000000 O
   O3         1.0     0.054840      0.276070      0.298750     Biso  1.000000 O
   O4         1.0    -0.060090      0.450310      0.606570     Biso  1.000000 O
   O6         1.0    -0.122590      0.169630      0.625130     Biso  1.000000 O
   O5         1.0    -0.402700      0.314810      0.287370     Biso  1.000000 O
   O7         1.0     0.215510      0.296600      0.930810     Biso  1.000000 O
   O8         1.0     0.301080      0.570100      0.928980     Biso  1.000000 O
   O9         1.0     0.394210      0.131730      0.662110     Biso  1.000000 O
