#======================================================================

# CRYSTAL DATA

#----------------------------------------------------------------------

data_VESTA_phase_1


_pd_phase_name                         'New structure'
_cell_length_a                         7.19520
_cell_length_b                         5.56870
_cell_length_c                         2.80690
_cell_angle_alpha                      90
_cell_angle_beta                       90
_cell_angle_gamma                      90
_symmetry_space_group_name_H-M         'P n a 21'
_symmetry_Int_Tables_number            33

loop_
_symmetry_equiv_pos_as_xyz
   'x, y, z'
   '-x, -y, z+1/2'
   'x+1/2, -y+1/2, z'
   '-x+1/2, y+1/2, z+1/2'

loop_
   _atom_site_label
   _atom_site_occupancy
   _atom_site_fract_x
   _atom_site_fract_y
   _atom_site_fract_z
   _atom_site_adp_type
   _atom_site_B_iso_or_equiv
   _atom_site_type_symbol
   Mg         1.0     0.186800      0.484100      0.051700     Biso  1.000000 Mg
   C          1.0     0.014500      0.164200      0.797000     Biso  1.000000 C
   O1         1.0    -0.078400      0.327000      0.026700     Biso  1.000000 O
   O2         1.0     0.152800      0.258000      0.569900     Biso  1.000000 O
   O3         1.0     0.106700     -0.021000      0.045900     Biso  1.000000 O
