# Created by the Bilbao Crystallographic Server
# http://www.cryst.ehu.es
# Date: 17/02/2016 06:19:46

# CONTCAR -- non-magnetic

data_JIoHEHJ2
_audit_creation_date               2016-02-17
_audit_creation_method             "Bilbao Crystallographic Server"
_symmetry_Int_Tables_number        11
#_symmetry_space_group_name_H-M    "P2_1/m1'"
_cell_length_a                     2.6456
_cell_length_b                     4.6016
_cell_length_c                     7.1926
_cell_angle_alpha                  90.0000
_cell_angle_beta                   96.5200
_cell_angle_gamma                  90.0000

loop_
_symmetry_equiv_pos_site_id
_symmetry_equiv_pos_as_xyz
   1   x,y,z
   2   -x,y+1/2,-z
   3   -x,-y,-z
   4   x,-y+1/2,z

loop_
_atom_site_label
_atom_site_type_symbol
_atom_site_fract_x
_atom_site_fract_y
_atom_site_fract_z
_atom_site_occupancy
C1 C 0.50302 0.25000 0.72937 1.0000
Na1 Na 0.12712 0.25000 0.36320 1.0000
Na2 Na 0.01641 0.25000 0.02185 1.0000
O1 O 0.42738 0.48638 0.81485 1.0000
O2 O 0.71146 0.25000 0.58131 1.0000
