#======================================================================

# CRYSTAL DATA

#----------------------------------------------------------------------

data_VESTA_phase_1


_pd_phase_name                         'New structure'
_cell_length_a                         4.93800
_cell_length_b                         4.93800
_cell_length_c                         5.86200
_cell_angle_alpha                      90
_cell_angle_beta                       90
_cell_angle_gamma                      120
_symmetry_space_group_name_H-M         'P 63 2 2'
_symmetry_Int_Tables_number            182

loop_
_symmetry_equiv_pos_as_xyz
   'x, y, z'
   '-y, x-y, z'
   '-x+y, -x, z'
   '-x, -y, z+1/2'
   'y, -x+y, z+1/2'
   'x-y, x, z+1/2'
   'y, x, -z'
   'x-y, -y, -z'
   '-x, -x+y, -z'
   '-y, -x, -z+1/2'
   '-x+y, y, -z+1/2'
   'x, x-y, -z+1/2'

loop_
   _atom_site_label
   _atom_site_occupancy
   _atom_site_fract_x
   _atom_site_fract_y
   _atom_site_fract_z
   _atom_site_adp_type
   _atom_site_B_iso_or_equiv
   _atom_site_type_symbol
   Ca         1.0     0.333333      0.666667      0.250000     Biso  1.000000 Ca
   C          1.0     0.000000      0.000000      0.000000     Biso  1.000000 C
   O          1.0     0.254000      0.000000      0.000000     Biso  1.000000 O
